Circuit: * C:\Users\success\Desktop\ACIC\Project\Special_Assignment_21BEC006\Final\gilbert_cell_pl.asc

WARNING: Node N007 is floating.
WARNING: Node N010 is floating.

Instance "m1": Length shorter than recommended for a level 1 MOSFET.
Instance "m1": Width narrower than recommended for a level 1 MOSFET.
Instance "m2": Length shorter than recommended for a level 1 MOSFET.
Instance "m2": Width narrower than recommended for a level 1 MOSFET.
Instance "m3": Length shorter than recommended for a level 1 MOSFET.
Instance "m3": Width narrower than recommended for a level 1 MOSFET.
Instance "m4": Length shorter than recommended for a level 1 MOSFET.
Instance "m4": Width narrower than recommended for a level 1 MOSFET.
Instance "m5": Length shorter than recommended for a level 1 MOSFET.
Instance "m5": Width narrower than recommended for a level 1 MOSFET.
Instance "m6": Length shorter than recommended for a level 1 MOSFET.
Instance "m6": Width narrower than recommended for a level 1 MOSFET.
Instance "m7": Length shorter than recommended for a level 1 MOSFET.
Instance "m7": Width narrower than recommended for a level 1 MOSFET.
Instance "m8": Length shorter than recommended for a level 1 MOSFET.
Instance "m8": Width narrower than recommended for a level 1 MOSFET.
Direct Newton iteration for .op point succeeded.

Date: Fri Apr 26 10:04:39 2024
Total elapsed time: 0.230 seconds.

tnom = 27
temp = 27
method = modified trap
totiter = 14844
traniter = 14838
tranpoints = 7420
accept = 5818
rejected = 1602
matrix size = 13
fillins = 6
solver = Normal
Avg thread counts: 1.2/1.3/1.4/1.2
Matrix Compiler1:      90 opcodes  0.9/[0.6]/0.7
Matrix Compiler2: 1.38 KB object code size  0.3/1.1/[0.3]

