Circuit: * C:\Users\success\Desktop\ACIC\Project\Special_Assignment_21BEC006\gilbert_cell.asc

WARNING: Node N007 is floating.
WARNING: Node N010 is floating.

Instance "m1": Length shorter than recommended for a level 1 MOSFET.
Instance "m1": Width narrower than recommended for a level 1 MOSFET.
Instance "m2": Length shorter than recommended for a level 1 MOSFET.
Instance "m2": Width narrower than recommended for a level 1 MOSFET.
Instance "m3": Length shorter than recommended for a level 1 MOSFET.
Instance "m3": Width narrower than recommended for a level 1 MOSFET.
Instance "m4": Length shorter than recommended for a level 1 MOSFET.
Instance "m4": Width narrower than recommended for a level 1 MOSFET.
Instance "m5": Length shorter than recommended for a level 1 MOSFET.
Instance "m5": Width narrower than recommended for a level 1 MOSFET.
Instance "m6": Length shorter than recommended for a level 1 MOSFET.
Instance "m6": Width narrower than recommended for a level 1 MOSFET.
Direct Newton iteration for .op point succeeded.

Date: Fri Apr 26 10:01:33 2024
Total elapsed time: 0.275 seconds.

tnom = 27
temp = 27
method = modified trap
totiter = 5624
traniter = 5618
tranpoints = 2810
accept = 2415
rejected = 395
matrix size = 13
fillins = 6
solver = Normal
Avg thread counts: 3.1/1.9/2.0/1.5
Matrix Compiler1: 1.64 KB object code size  1.6/1.6/[0.6]
Matrix Compiler2: off  [0.5]/1.3/0.6

